optran: no such command available in ngspice

Compatibility modes selected: hs a

Warning: m=xx on .subckt line will override multiplier m hierarchy!

Warning: redefinition of .subckt sky130_fd_pr__res_generic_po, ignored
Warning: redefinition of .subckt sky130_fd_pr__res_generic_nd, ignored
Warning: redefinition of .subckt sky130_fd_pr__res_generic_pd, ignored
Warning: redefinition of .subckt sky130_fd_pr__pnp_05v5_w0p68l0p68, ignored
Warning: redefinition of .subckt sky130_fd_pr__model__parasitic__res_po, ignored
Warning: redefinition of .subckt sky130_fd_pr__res_xhigh_po, ignored
Warning: redefinition of .subckt sky130_fd_pr__res_high_po, ignored
Warning: redefinition of .subckt sky130_fd_pr__res_xhigh_po_0p35, ignored
Warning: redefinition of .subckt sky130_fd_pr__res_xhigh_po_0p69, ignored
Warning: redefinition of .subckt sky130_fd_pr__res_xhigh_po_1p41, ignored
Warning: redefinition of .subckt sky130_fd_pr__res_xhigh_po_2p85, ignored
Warning: redefinition of .subckt sky130_fd_pr__res_xhigh_po_5p73, ignored
Warning: redefinition of .subckt sky130_fd_pr__res_xhigh_po__base, ignored
Warning: redefinition of .subckt sky130_fd_pr__res_high_po_0p35, ignored
Warning: redefinition of .subckt sky130_fd_pr__res_high_po_0p69, ignored
Warning: redefinition of .subckt sky130_fd_pr__res_high_po_1p41, ignored
Warning: redefinition of .subckt sky130_fd_pr__res_high_po_2p85, ignored
Warning: redefinition of .subckt sky130_fd_pr__res_high_po_5p73, ignored

Circuit: * /home/dey.nath2000/esim-workspace/xor_gate/xor_gate.cir

option SCALE: Scale is set to 1e-06 for instance and model parameters
Reducing trtol to 1 for xspice 'A' devices
Doing analysis at TEMP = 27.000000 and TNOM = 27.000000

Warning: include: has no value, DC 0 assumed
Warning: v2: no DC value, transient time 0 value used
Warning: v1: no DC value, transient time 0 value used
=============dwaraka_not : New Iteration===========
Instance : 0

Inside foo before eval.....
A=0
Y=0

Inside foo after eval.....
A=0
Y=1
=============dwaraka_not : New Iteration===========
Instance : 0

Inside foo before eval.....
A=0
Y=1

Inside foo after eval.....
A=0
Y=1
=============dwaraka_not : New Iteration===========
Instance : 0

Inside foo before eval.....
A=0
Y=1

Inside foo after eval.....
A=1
Y=0
=============dwaraka_not : New Iteration===========
Instance : 0

Inside foo before eval.....
A=1
Y=0

Inside foo after eval.....
A=1
Y=0
=============dwaraka_not : New Iteration===========
Instance : 0

Inside foo before eval.....
A=1
Y=0

Inside foo after eval.....
A=1
Y=0
=============dwaraka_not : New Iteration===========
Instance : 0

Inside foo before eval.....
A=1
Y=0

Inside foo after eval.....
A=0
Y=1
=============dwaraka_not : New Iteration===========
Instance : 0

Inside foo before eval.....
A=0
Y=1

Inside foo after eval.....
A=1
Y=0
=============dwaraka_not : New Iteration===========
Instance : 0

Inside foo before eval.....
A=1
Y=0

Inside foo after eval.....
A=1
Y=0
=============dwaraka_not : New Iteration===========
Instance : 0

Inside foo before eval.....
A=1
Y=0

Inside foo after eval.....
A=1
Y=0
=============dwaraka_not : New Iteration===========
Instance : 0

Inside foo before eval.....
A=1
Y=0

Inside foo after eval.....
A=0
Y=1
=============dwaraka_not : New Iteration===========
Instance : 0

Inside foo before eval.....
A=0
Y=1

Inside foo after eval.....
A=1
Y=0
=============dwaraka_not : New Iteration===========
Instance : 0

Inside foo before eval.....
A=1
Y=0

Inside foo after eval.....
A=1
Y=0
=============dwaraka_not : New Iteration===========
Instance : 0

Inside foo before eval.....
A=1
Y=0

Inside foo after eval.....
A=1
Y=0
=============dwaraka_not : New Iteration===========
Instance : 0

Inside foo before eval.....
A=1
Y=0

Inside foo after eval.....
A=0
Y=1
=============dwaraka_not : New Iteration===========
Instance : 0

Inside foo before eval.....
A=0
Y=1

Inside foo after eval.....
A=1
Y=0
=============dwaraka_not : New Iteration===========
Instance : 0

Inside foo before eval.....
A=1
Y=0

Inside foo after eval.....
A=1
Y=0
=============dwaraka_not : New Iteration===========
Instance : 0

Inside foo before eval.....
A=1
Y=0

Inside foo after eval.....
A=1
Y=0
=============dwaraka_not : New Iteration===========
Instance : 0

Inside foo before eval.....
A=1
Y=0

Inside foo after eval.....
A=0
Y=1
=============dwaraka_not : New Iteration===========
Instance : 0

Inside foo before eval.....
A=0
Y=1

Inside foo after eval.....
A=1
Y=0
=============dwaraka_not : New Iteration===========
Instance : 0

Inside foo before eval.....
A=1
Y=0

Inside foo after eval.....
A=1
Y=0
=============dwaraka_not : New Iteration===========
Instance : 0

Inside foo before eval.....
A=1
Y=0

Inside foo after eval.....
A=1
Y=0
=============dwaraka_not : New Iteration===========
Instance : 0

Inside foo before eval.....
A=1
Y=0

Inside foo after eval.....
A=0
Y=1
=============dwaraka_not : New Iteration===========
Instance : 0

Inside foo before eval.....
A=0
Y=1

Inside foo after eval.....
A=1
Y=0
=============dwaraka_not : New Iteration===========
Instance : 0

Inside foo before eval.....
A=1
Y=0

Inside foo after eval.....
A=1
Y=0
=============dwaraka_not : New Iteration===========
Instance : 0

Inside foo before eval.....
A=1
Y=0

Inside foo after eval.....
A=1
Y=0
=============dwaraka_not : New Iteration===========
Instance : 0

Inside foo before eval.....
A=1
Y=0

Inside foo after eval.....
A=0
Y=1
=============dwaraka_not : New Iteration===========
Instance : 0

Inside foo before eval.....
A=0
Y=1

Inside foo after eval.....
A=1
Y=0
=============dwaraka_not : New Iteration===========
Instance : 0

Inside foo before eval.....
A=1
Y=0

Inside foo after eval.....
A=1
Y=0
=============dwaraka_not : New Iteration===========
Instance : 0

Inside foo before eval.....
A=1
Y=0

Inside foo after eval.....
A=1
Y=0
=============dwaraka_not : New Iteration===========
Instance : 0

Inside foo before eval.....
A=1
Y=0

Inside foo after eval.....
A=0
Y=1
=============dwaraka_not : New Iteration===========
Instance : 0

Inside foo before eval.....
A=0
Y=1

Inside foo after eval.....
A=1
Y=0
=============dwaraka_not : New Iteration===========
Instance : 0

Inside foo before eval.....
A=1
Y=0

Inside foo after eval.....
A=1
Y=0
=============dwaraka_not : New Iteration===========
Instance : 0

Inside foo before eval.....
A=1
Y=0

Inside foo after eval.....
A=1
Y=0
=============dwaraka_not : New Iteration===========
Instance : 0

Inside foo before eval.....
A=1
Y=0

Inside foo after eval.....
A=0
Y=1
=============dwaraka_not : New Iteration===========
Instance : 0

Inside foo before eval.....
A=0
Y=1

Inside foo after eval.....
A=1
Y=0
=============dwaraka_not : New Iteration===========
Instance : 0

Inside foo before eval.....
A=1
Y=0

Inside foo after eval.....
A=1
Y=0
=============dwaraka_not : New Iteration===========
Instance : 0

Inside foo before eval.....
A=1
Y=0

Inside foo after eval.....
A=1
Y=0
=============dwaraka_not : New Iteration===========
Instance : 0

Inside foo before eval.....
A=1
Y=0

Inside foo after eval.....
A=0
Y=1
=============dwaraka_not : New Iteration===========
Instance : 0

Inside foo before eval.....
A=0
Y=1

Inside foo after eval.....
A=1
Y=0
=============dwaraka_not : New Iteration===========
Instance : 0

Inside foo before eval.....
A=1
Y=0

Inside foo after eval.....
A=1
Y=0
=============dwaraka_not : New Iteration===========
Instance : 0

Inside foo before eval.....
A=1
Y=0

Inside foo after eval.....
A=1
Y=0
=============dwaraka_not : New Iteration===========
Instance : 0

Inside foo before eval.....
A=1
Y=0

Inside foo after eval.....
A=0
Y=1

No. of Data Rows : 1300
ERROR: (internal)  This operation is not defined for display type PrinterOnly.
Can't open viewport for graphics.
ERROR: (internal)  This operation is not defined for display type PrinterOnly.
Can't open viewport for graphics.
ERROR: (internal)  This operation is not defined for display type PrinterOnly.
Can't open viewport for graphics.
binary raw file "/home/dey.nath2000/eSim-Workspace/Xor_gate/Xor_gate.raw"
Reducing trtol to 1 for xspice 'A' devices
Doing analysis at TEMP = 27.000000 and TNOM = 27.000000

Warning: include: has no value, DC 0 assumed
Warning: v2: no DC value, transient time 0 value used
Warning: v1: no DC value, transient time 0 value used
No. of Data Columns : 25  
=============dwaraka_not : New Iteration===========
Instance : 1

Inside foo before eval.....
A=0
Y=0

Inside foo after eval.....
A=0
Y=1
=============dwaraka_not : New Iteration===========
Instance : 1

Inside foo before eval.....
A=0
Y=1

Inside foo after eval.....
A=0
Y=1
=============dwaraka_not : New Iteration===========
Instance : 1

Inside foo before eval.....
A=0
Y=1

Inside foo after eval.....
A=1
Y=0
=============dwaraka_not : New Iteration===========
Instance : 1

Inside foo before eval.....
A=1
Y=0

Inside foo after eval.....
A=1
Y=0
=============dwaraka_not : New Iteration===========
Instance : 1

Inside foo before eval.....
A=1
Y=0

Inside foo after eval.....
A=1
Y=0
=============dwaraka_not : New Iteration===========
Instance : 1

Inside foo before eval.....
A=1
Y=0

Inside foo after eval.....
A=0
Y=1
=============dwaraka_not : New Iteration===========
Instance : 1

Inside foo before eval.....
A=0
Y=1

Inside foo after eval.....
A=1
Y=0
=============dwaraka_not : New Iteration===========
Instance : 1

Inside foo before eval.....
A=1
Y=0

Inside foo after eval.....
A=1
Y=0
=============dwaraka_not : New Iteration===========
Instance : 1

Inside foo before eval.....
A=1
Y=0

Inside foo after eval.....
A=1
Y=0
=============dwaraka_not : New Iteration===========
Instance : 1

Inside foo before eval.....
A=1
Y=0

Inside foo after eval.....
A=0
Y=1
=============dwaraka_not : New Iteration===========
Instance : 1

Inside foo before eval.....
A=0
Y=1

Inside foo after eval.....
A=1
Y=0
=============dwaraka_not : New Iteration===========
Instance : 1

Inside foo before eval.....
A=1
Y=0

Inside foo after eval.....
A=1
Y=0
=============dwaraka_not : New Iteration===========
Instance : 1

Inside foo before eval.....
A=1
Y=0

Inside foo after eval.....
A=1
Y=0
=============dwaraka_not : New Iteration===========
Instance : 1

Inside foo before eval.....
A=1
Y=0

Inside foo after eval.....
A=0
Y=1
=============dwaraka_not : New Iteration===========
Instance : 1

Inside foo before eval.....
A=0
Y=1

Inside foo after eval.....
A=1
Y=0
=============dwaraka_not : New Iteration===========
Instance : 1

Inside foo before eval.....
A=1
Y=0

Inside foo after eval.....
A=1
Y=0
=============dwaraka_not : New Iteration===========
Instance : 1

Inside foo before eval.....
A=1
Y=0

Inside foo after eval.....
A=1
Y=0
=============dwaraka_not : New Iteration===========
Instance : 1

Inside foo before eval.....
A=1
Y=0

Inside foo after eval.....
A=0
Y=1
=============dwaraka_not : New Iteration===========
Instance : 1

Inside foo before eval.....
A=0
Y=1

Inside foo after eval.....
A=1
Y=0
=============dwaraka_not : New Iteration===========
Instance : 1

Inside foo before eval.....
A=1
Y=0

Inside foo after eval.....
A=1
Y=0
=============dwaraka_not : New Iteration===========
Instance : 1

Inside foo before eval.....
A=1
Y=0

Inside foo after eval.....
A=1
Y=0
=============dwaraka_not : New Iteration===========
Instance : 1

Inside foo before eval.....
A=1
Y=0

Inside foo after eval.....
A=0
Y=1
=============dwaraka_not : New Iteration===========
Instance : 1

Inside foo before eval.....
A=0
Y=1

Inside foo after eval.....
A=1
Y=0
=============dwaraka_not : New Iteration===========
Instance : 1

Inside foo before eval.....
A=1
Y=0

Inside foo after eval.....
A=1
Y=0
=============dwaraka_not : New Iteration===========
Instance : 1

Inside foo before eval.....
A=1
Y=0

Inside foo after eval.....
A=1
Y=0
=============dwaraka_not : New Iteration===========
Instance : 1

Inside foo before eval.....
A=1
Y=0

Inside foo after eval.....
A=0
Y=1
=============dwaraka_not : New Iteration===========
Instance : 1

Inside foo before eval.....
A=0
Y=1

Inside foo after eval.....
A=1
Y=0
=============dwaraka_not : New Iteration===========
Instance : 1

Inside foo before eval.....
A=1
Y=0

Inside foo after eval.....
A=1
Y=0
=============dwaraka_not : New Iteration===========
Instance : 1

Inside foo before eval.....
A=1
Y=0

Inside foo after eval.....
A=1
Y=0
=============dwaraka_not : New Iteration===========
Instance : 1

Inside foo before eval.....
A=1
Y=0

Inside foo after eval.....
A=0
Y=1
=============dwaraka_not : New Iteration===========
Instance : 1

Inside foo before eval.....
A=0
Y=1

Inside foo after eval.....
A=1
Y=0
=============dwaraka_not : New Iteration===========
Instance : 1

Inside foo before eval.....
A=1
Y=0

Inside foo after eval.....
A=1
Y=0
=============dwaraka_not : New Iteration===========
Instance : 1

Inside foo before eval.....
A=1
Y=0

Inside foo after eval.....
A=1
Y=0
=============dwaraka_not : New Iteration===========
Instance : 1

Inside foo before eval.....
A=1
Y=0

Inside foo after eval.....
A=0
Y=1
=============dwaraka_not : New Iteration===========
Instance : 1

Inside foo before eval.....
A=0
Y=1

Inside foo after eval.....
A=1
Y=0
=============dwaraka_not : New Iteration===========
Instance : 1

Inside foo before eval.....
A=1
Y=0

Inside foo after eval.....
A=1
Y=0
=============dwaraka_not : New Iteration===========
Instance : 1

Inside foo before eval.....
A=1
Y=0

Inside foo after eval.....
A=1
Y=0
=============dwaraka_not : New Iteration===========
Instance : 1

Inside foo before eval.....
A=1
Y=0

Inside foo after eval.....
A=0
Y=1
=============dwaraka_not : New Iteration===========
Instance : 1

Inside foo before eval.....
A=0
Y=1

Inside foo after eval.....
A=1
Y=0
=============dwaraka_not : New Iteration===========
Instance : 1

Inside foo before eval.....
A=1
Y=0

Inside foo after eval.....
A=1
Y=0
=============dwaraka_not : New Iteration===========
Instance : 1

Inside foo before eval.....
A=1
Y=0

Inside foo after eval.....
A=1
Y=0
=============dwaraka_not : New Iteration===========
Instance : 1

Inside foo before eval.....
A=1
Y=0

Inside foo after eval.....
A=0
Y=1

No. of Data Rows : 1300

Total analysis time (seconds) = 0.140513

Total CPU time (seconds) = 10.547 

Total DRAM available = 257855.305 MB.
DRAM currently available = 249082.871 MB.
Maximum ngspice program size =  397.453 MB.
Current ngspice program size =  331.723 MB.

Shared ngspice pages =    9.637 MB.
Text (code) pages =    6.285 MB.
Stack = 0 bytes.
Library pages =  325.172 MB.

